Circuit: * C:\Users\Christopher Brant\Google Drive\Clemson Year 3\Clemson Fall 2017\ECE 3110 Electrical Engineering III Lab\Pre-Lab Reports\Draft3.asc

Direct Newton iteration for .op point succeeded.

Date: Mon Oct 09 01:10:50 2017
Total elapsed time: 0.040 seconds.

tnom = 27
temp = 27
method = modified trap
totiter = 1144
traniter = 1132
tranpoints = 438
accept = 312
rejected = 126
matrix size = 6
fillins = 0
solver = Normal
Matrix Compiler1:      12 opcodes  0.0/[0.0]/0.0
Matrix Compiler2: off  [0.0]/0.1/0.0

