Circuit: * C:\Users\Christopher Brant\Google Drive\Clemson Year 3\Clemson Fall 2017\ECE 3110 Electrical Engineering III Lab\Pre-Lab Reports\Draft1.asc

.OP point found by inspection.

Date: Mon Oct 30 03:21:52 2017
Total elapsed time: 0.027 seconds.

tnom = 27
temp = 27
method = trap
totiter = 49
traniter = 0
tranpoints = 0
accept = 0
rejected = 0
matrix size = 8
fillins = 0
solver = Normal
Matrix Compiler1: 478 bytes object code size
Matrix Compiler2: 642 bytes object code size
