Circuit: * C:\Users\Christopher Brant\Google Drive\Clemson Year 3\Clemson Fall 2017\ECE 3110 Electrical Engineering III Lab\Pre-Lab Reports\Lab1Pre.asc

Fatal Error: Syntax error in .DC command.
   "r2" is not the name of an independent source or "temp".
