Circuit: * C:\Users\Christopher Brant\Google Drive\Clemson Year 3\Clemson Fall 2017\ECE 3110 Electrical Engineering III Lab\Pre-Lab Reports\Lab2Pre.asc

.OP point found by inspection.
.step r=470 c=0
.step r=1000 c=0
.step r=10000 c=0
.step r=100000 c=0
.step r=470 c=1e-005
.step r=1000 c=1e-005
.step r=10000 c=1e-005
.step r=100000 c=1e-005
.step r=470 c=2.2e-005
.step r=1000 c=2.2e-005
.step r=10000 c=2.2e-005
.step r=100000 c=2.2e-005
.step r=470 c=4.7e-005
.step r=1000 c=4.7e-005
.step r=10000 c=4.7e-005
.step r=100000 c=4.7e-005

Date: Mon Sep 25 00:16:59 2017
Total elapsed time: 0.376 seconds.

tnom = 27
temp = 27
method = modified trap
totiter = 2134
traniter = 2134
tranpoints = 1063
accept = 1057
rejected = 6
matrix size = 4
fillins = 0
solver = Normal
Matrix Compiler1: off  [0.0]/0.0/0.0
Matrix Compiler2: off  [0.0]/0.0/0.0

