Circuit: * C:\Users\Christopher Brant\Google Drive\Clemson Year 3\Clemson Fall 2017\ECE 3110 Electrical Engineering III Lab\Pre-Lab Reports\Lab2Pre2.asc

.OP point found by inspection.
.step r=470
.step r=1000
.step r=10000
.step r=100000

Date: Mon Sep 25 00:37:56 2017
Total elapsed time: 0.685 seconds.

tnom = 27
temp = 27
method = modified trap
totiter = 43498
traniter = 43498
tranpoints = 14200
accept = 10282
rejected = 3918
matrix size = 9
fillins = 4
solver = Normal
Matrix Compiler1:      33 opcodes  0.1/[0.0]/0.1
Matrix Compiler2: 715 bytes object code size  0.1/0.1/[0.0]

