Circuit: * C:\Users\Christopher Brant\Google Drive\Clemson Year 3\Clemson Fall 2017\ECE 3110 Electrical Engineering III Lab\Pre-Lab Reports\Lab6Pre2.asc

WARNING: Node N003 is floating.

WARNING: Less than two connections to node N003.  This node is used by C2.
Direct Newton iteration for .op point succeeded.
.step r=1000
.step r=5000
.step r=15000
.step r=25000

Date: Mon Oct 30 03:34:50 2017
Total elapsed time: 2.118 seconds.

tnom = 27
temp = 27
method = modified trap
totiter = 731498
traniter = 731492
tranpoints = 334074
accept = 316206
rejected = 17868
matrix size = 11
fillins = 0
solver = Normal
Matrix Compiler1:      35 opcodes  0.1/[0.0]/0.1
Matrix Compiler2: 835 bytes object code size  0.1/0.1/[0.0]

