Circuit: * C:\Users\Christopher Brant\Google Drive\Clemson Year 3\Clemson Fall 2017\ECE 3110 Electrical Engineering III Lab\Pre-Lab Reports\Lab7.asc

Direct Newton iteration for .op point succeeded.

Date: Mon Nov 13 01:37:10 2017
Total elapsed time: 0.223 seconds.

tnom = 27
temp = 27
method = modified trap
totiter = 231227
traniter = 231220
tranpoints = 115611
accept = 72319
rejected = 43292
matrix size = 12
fillins = 0
solver = Normal
Matrix Compiler1: 624 bytes object code size  0.2/0.0/[0.0]
Matrix Compiler2: 920 bytes object code size  0.1/0.1/[0.1]

