Circuit: * C:\Users\Christopher Brant\Google Drive\Clemson Year 3\Clemson Fall 2017\ECE 3110 Electrical Engineering III Lab\Pre-Lab Reports\Lab8Pre1.asc

Direct Newton iteration for .op point succeeded.

Date: Mon Nov 27 01:37:02 2017
Total elapsed time: 0.228 seconds.

tnom = 27
temp = 27
method = modified trap
totiter = 231226
traniter = 231220
tranpoints = 115611
accept = 72319
rejected = 43292
matrix size = 11
fillins = 0
solver = Normal
Matrix Compiler1:      35 opcodes  0.1/[0.0]/0.1
Matrix Compiler2: 835 bytes object code size  0.1/0.1/[0.0]

