Circuit: * C:\Users\Christopher Brant\Google Drive\Clemson Year 3\Clemson Fall 2017\ECE 3110 Electrical Engineering III Lab\Pre-Lab Reports\Lab8Pre.asc

Direct Newton iteration for .op point succeeded.

Date: Mon Nov 13 19:15:16 2017
Total elapsed time: 0.226 seconds.

tnom = 27
temp = 27
method = modified trap
totiter = 231228
traniter = 231221
tranpoints = 115611
accept = 72319
rejected = 43292
matrix size = 11
fillins = 0
solver = Normal
Matrix Compiler1:      35 opcodes  0.1/[0.1]/0.1
Matrix Compiler2: off  [0.1]/0.1/0.1

